92 
Atoms 
Br   -5.737820  5.744160  -3.131470 
Br   -5.732570  -0.015511  -8.822210 
I   -2.994350  -0.011463  -6.054450 
I   -6.405380  2.800700  -5.875150 
I   -2.831010  -2.859080  -9.483560 
Br   -5.711020  -0.001937  -2.972400 
Br   -5.717870  0.011851  2.959190 
Br   -5.747820  -5.748650  -3.104770 
Br   -5.745010  5.758620  3.091480 
I   -6.410270  -2.816820  -5.862090 
I   -3.008320  0.016670  6.047510 
I   -6.418910  2.827950  5.847260 
I   -6.371510  -3.064890  -0.000230 
I   -3.014260  0.002615  -0.003486 
I   -6.366160  3.075940  -0.014499 
I   -2.983020  2.984580  -3.108670 
I   -2.995370  -2.979390  3.101750 
Br   -5.752930  0.025475  8.808930 
I   -6.423800  -2.789570  5.860310 
I   -2.847970  2.864000  9.477000 
Br   0.015173  5.722250  -8.828920 
I   2.821110  6.398520  -5.872860 
I   2.852910  2.814970  -9.490190 
I   -2.826070  2.819900  -9.496760 
Br   0.008396  5.707540  -2.979070 
Br   0.001549  5.721330  2.952520 
Cs   0.003560  -0.007169  -3.083840 
Pb   -3.205350  3.203550  -6.320530 
Pb   -3.156440  3.161920  -0.010994 
I   -2.796420  6.403390  -5.879350 
I   0.009597  2.987270  -6.057950 
I   2.807580  6.425770  5.849540 
I   -3.064880  6.371480  -0.018349 
I   0.002623  3.014250  -0.007004 
I   3.075970  6.366160  -0.011248 
I   2.988220  2.993800  3.094770 
I   -2.990170  2.998980  3.087860 
Br   -0.005179  5.763230  8.802230 
Br   -0.010112  0.020362  8.759570 
Pb   -3.219910  3.232880  6.298150 
I   -2.809950  6.430640  5.843050 
I   -0.004373  3.015400  6.044010 
Br   5.755010  5.734190  -3.118180 
Br   -5.755010  -5.734190  3.118180 
Br   0.005179  -5.763230  -8.802230 
Br   0.010112  -0.020362  -8.759570 
I   2.809950  -6.430640  -5.843050 
I   0.004373  -3.015400  -6.044010 
Br   -0.001549  -5.721330  -2.952520 
Br   -0.008396  -5.707540  2.979070 
Cs   -0.003560  0.007169  3.083840 
Pb   -3.210940  -3.227300  -6.305580 
Pb   -3.161940  -3.156440  0.003688 
I   -2.807580  -6.425770  -5.849540 
I   2.796420  -6.403390  5.879350 
I   -0.009597  -2.987270  6.057950 
I   -3.075970  -6.366160  0.011248 
I   3.064880  -6.371480  0.018349 
I   -0.002623  -3.014250  0.007004 
I   -2.988220  -2.993800  -3.094770 
I   2.990170  -2.998980  -3.087860 
Br   -0.015173  -5.722250  8.828920 
Pb   -3.225510  -3.197970  6.313090 
I   -2.821110  -6.398520  5.872860 
I   -2.852910  -2.814970  9.490190 
I   2.826070  -2.819900  9.496760 
Br   5.752930  -0.025475  -8.808930 
I   6.423800  2.789570  -5.860310 
I   2.847970  -2.864000  -9.477000 
Br   5.717870  -0.011851  -2.959190 
Br   5.711020  0.001937  2.972400 
Br   5.745010  -5.758620  -3.091480 
Br   5.747820  5.748650  3.104770 
Pb   3.219910  -3.232880  -6.298150 
Pb   3.225510  3.197970  -6.313090 
Pb   3.156440  -3.161920  0.010994 
Pb   3.161940  3.156440  -0.003688 
I   3.008320  -0.016670  -6.047510 
I   6.418910  -2.827950  -5.847260 
I   6.410270  2.816820  5.862090 
I   3.014260  -0.002615  0.003486 
I   6.366160  -3.075940  0.014499 
I   6.371510  3.064890  0.000230 
I   2.995370  2.979390  -3.101750 
I   2.983020  -2.984580  3.108670 
Br   5.732570  0.015511  8.822210 
Pb   3.205350  -3.203550  6.320530 
Pb   3.210940  3.227300  6.305580 
I   2.994350  0.011463  6.054450 
I   6.405380  -2.800700  5.875150 
I   2.831010  2.859080  9.483560 
Br   5.737820  -5.744160  3.131470 
92 
Atoms 
Br   -5.737820  5.744160  -3.131470 
Br   -5.732570  -0.015511  -8.822210 
I   -2.994350  -0.011463  -6.054450 
I   -6.405380  2.800700  -5.875150 
I   -2.831010  -2.859080  -9.483560 
Br   -5.711020  -0.001937  -2.972400 
Br   -5.717870  0.011851  2.959190 
Br   -5.747820  -5.748650  -3.104770 
Br   -5.745010  5.758620  3.091480 
I   -6.410270  -2.816820  -5.862090 
I   -3.008320  0.016670  6.047510 
I   -6.418910  2.827950  5.847260 
I   -6.371510  -3.064890  -0.000230 
I   -3.014260  0.002615  -0.003486 
I   -6.366160  3.075940  -0.014499 
I   -2.983020  2.984580  -3.108670 
I   -2.995370  -2.979390  3.101750 
Br   -5.752930  0.025475  8.808930 
I   -6.423800  -2.789570  5.860310 
I   -2.847970  2.864000  9.477000 
Br   0.015173  5.722250  -8.828920 
I   2.821110  6.398520  -5.872860 
I   2.852910  2.814970  -9.490190 
I   -2.826070  2.819900  -9.496760 
Br   0.008396  5.707540  -2.979070 
Br   0.001549  5.721330  2.952520 
Cs   0.003560  -0.007169  -3.083840 
Pb   -3.205350  3.203550  -6.320530 
Pb   -3.156440  3.161920  -0.010994 
I   -2.796420  6.403390  -5.879350 
I   0.009597  2.987270  -6.057950 
I   2.807580  6.425770  5.849540 
I   -3.064880  6.371480  -0.018349 
I   0.002623  3.014250  -0.007004 
I   3.075970  6.366160  -0.011248 
I   2.988220  2.993800  3.094770 
I   -2.990170  2.998980  3.087860 
Br   -0.005179  5.763230  8.802230 
Br   -0.010112  0.020362  8.759570 
Pb   -3.219910  3.232880  6.298150 
I   -2.809950  6.430640  5.843050 
I   -0.004373  3.015400  6.044010 
Br   5.755010  5.734190  -3.118180 
Br   -5.755010  -5.734190  3.118180 
Br   0.005179  -5.763230  -8.802230 
Br   0.010112  -0.020362  -8.759570 
I   2.809950  -6.430640  -5.843050 
I   0.004373  -3.015400  -6.044010 
Br   -0.001549  -5.721330  -2.952520 
Br   -0.008396  -5.707540  2.979070 
Cs   -0.003560  0.007169  3.083840 
Pb   -3.210940  -3.227300  -6.305580 
Pb   -3.161940  -3.156440  0.003688 
I   -2.807580  -6.425770  -5.849540 
I   2.796420  -6.403390  5.879350 
I   -0.009597  -2.987270  6.057950 
I   -3.075970  -6.366160  0.011248 
I   3.064880  -6.371480  0.018349 
I   -0.002623  -3.014250  0.007004 
I   -2.988220  -2.993800  -3.094770 
I   2.990170  -2.998980  -3.087860 
Br   -0.015173  -5.722250  8.828920 
Pb   -3.225510  -3.197970  6.313090 
I   -2.821110  -6.398520  5.872860 
I   -2.852910  -2.814970  9.490190 
I   2.826070  -2.819900  9.496760 
Br   5.752930  -0.025475  -8.808930 
I   6.423800  2.789570  -5.860310 
I   2.847970  -2.864000  -9.477000 
Br   5.717870  -0.011851  -2.959190 
Br   5.711020  0.001937  2.972400 
Br   5.745010  -5.758620  -3.091480 
Br   5.747820  5.748650  3.104770 
Pb   3.219910  -3.232880  -6.298150 
Pb   3.225510  3.197970  -6.313090 
Pb   3.156440  -3.161920  0.010994 
Pb   3.161940  3.156440  -0.003688 
I   3.008320  -0.016670  -6.047510 
I   6.418910  -2.827950  -5.847260 
I   6.410270  2.816820  5.862090 
I   3.014260  -0.002615  0.003486 
I   6.366160  -3.075940  0.014499 
I   6.371510  3.064890  0.000230 
I   2.995370  2.979390  -3.101750 
I   2.983020  -2.984580  3.108670 
Br   5.732570  0.015511  8.822210 
Pb   3.205350  -3.203550  6.320530 
Pb   3.210940  3.227300  6.305580 
I   2.994350  0.011463  6.054450 
I   6.405380  -2.800700  5.875150 
I   2.831010  2.859080  9.483560 
Br   5.737820  -5.744160  3.131470 
