133 
Atoms 
I   -2.860580  9.472510  -5.896780 
I   -2.832940  5.837410  -9.517090 
Br   -5.796520  8.767950  -3.130420 
Br   -5.809580  8.780600  3.070550 
Br   -5.711900  2.945810  -3.000420 
I   -6.437260  5.808390  -5.880240 
I   -2.885330  9.496460  5.846370 
I   -6.406050  6.078810  -0.025705 
I   -3.137870  9.446770  -0.025687 
I   -3.030890  6.046890  3.083120 
Br   -5.790150  3.087510  8.787060 
I   -6.461930  5.832280  5.829700 
Br   -0.042249  8.789820  -2.997250 
Br   -0.067240  8.837560  8.800940 
Br   -5.718850  -3.149300  -8.810800 
Br   -5.753040  3.051590  -8.823520 
I   -2.961100  -3.129580  -6.056010 
I   -6.359460  -0.046777  -6.126370 
I   -2.768190  -5.905580  -9.493000 
Br   -5.679010  -3.019200  -2.988190 
Br   -5.691580  -3.007030  2.976900 
Br   -5.699420  -8.842390  -3.094300 
Br   -5.724470  2.957980  2.964670 
I   -6.372690  -5.901390  -5.856220 
I   -2.986630  -3.104880  6.056580 
I   -6.385230  -0.021840  6.100040 
I   -6.338640  -6.147430  -0.000626 
I   -2.962540  -3.118350  0.000310 
I   -6.369540  -0.034293  -0.013160 
I   -2.973110  -0.021917  -3.108850 
I   -2.964110  -6.065540  3.107970 
Br   -5.755960  -3.113390  8.799770 
I   -6.397370  -5.877510  5.853720 
I   -3.105640  0.003127  9.456790 
Br   0.002071  2.962270  -8.801080 
Br   -0.030074  8.801590  -8.836740 
I   2.986560  3.106580  -6.056200 
I   -0.020706  6.056900  -6.080760 
I   3.105570  -0.001422  -9.456400 
I   -3.065760  -0.035474  -9.469340 
Cs   -0.010433  3.047070  -3.058550 
Cs   -0.023297  3.059520  3.046410 
Cs   0.023227  -3.057810  -3.046030 
Br   -0.054805  8.801980  2.961550 
Pb   -3.151140  -0.029371  -6.264550 
Pb   -3.235460  6.283080  -6.332410 
Pb   -3.172390  -0.016652  -0.006459 
Pb   -3.198830  6.241420  -0.019278 
I   -2.995300  3.073580  -6.068730 
I   0.012875  -0.011643  -6.126660 
I   2.961030  3.131290  6.056390 
I   -0.046281  6.081650  6.056240 
I   -2.996760  3.087170  -0.012419 
I   -0.000035  0.000853  0.000190 
I   2.962470  3.120050  0.000071 
I   -0.033815  6.127620  -0.012377 
I   -3.017820  6.034240  -3.120120 
I   2.964040  6.067240  -3.107580 
I   2.973040  0.023622  3.109230 
I   -2.986190  -0.009260  3.096740 
Br   -0.034995  2.998150  8.789240 
Br   -0.002141  -2.960570  8.801460 
Pb   -3.177510  -0.003843  6.251660 
Pb   -3.262070  6.308830  6.293420 
I   -3.020830  3.098280  6.043850 
I   -0.012945  0.013349  6.127040 
I   -2.872970  5.876160  9.481560 
I   2.768120  5.907290  9.493380 
I   2.808160  5.868540  -9.505260 
Br   5.712420  8.831450  -3.106300 
Br   5.699350  8.844100  3.094680 
Br   5.691510  3.008740  -2.976520 
Pb   3.192390  6.318550  -6.318940 
Pb   3.129750  6.276340  -0.006014 
I   2.780510  9.503640  -5.884960 
I   6.397300  5.879210  -5.853340 
I   3.033450  9.480820  -0.012753 
I   6.338570  6.149140  0.001007 
I   2.950970  6.079900  3.095660 
Br   5.718780  3.151010  8.811180 
Pb   3.165780  6.344300  6.306900 
I   2.755770  9.527590  5.858190 
I   6.372620  5.903100  5.856600 
Br   -5.712490  -8.829750  3.106680 
Br   0.067170  -8.835860  -8.800560 
Br   0.034925  -2.996440  -8.788860 
I   2.885260  -9.494760  -5.845990 
I   0.046211  -6.079950  -6.055860 
Br   0.054735  -8.800270  -2.961170 
Br   0.042179  -8.788120  2.997630 
Cs   0.010363  -3.045360  3.058930 
Pb   -3.165850  -6.342590  -6.306510 
Pb   -3.129820  -6.274630  0.006395 
I   -2.755840  -9.525880  -5.857810 
I   2.860510  -9.470810  5.897160 
I   0.020636  -6.055190  6.081140 
I   -3.033520  -9.479110  0.013133 
I   3.137800  -9.445060  0.026068 
I   0.033745  -6.125910  0.012758 
I   -2.951040  -6.078190  -3.095280 
I   3.030820  -6.045180  -3.082740 
Br   0.030004  -8.799880  8.837120 
Pb   -3.192460  -6.316840  6.319320 
I   -2.780580  -9.501930  5.885340 
I   -2.808230  -5.866830  9.505640 
I   2.832870  -5.835710  9.517470 
Br   5.790080  -3.085800  -8.786670 
Br   5.755890  3.115090  -8.799390 
I   6.385160  0.023546  -6.099660 
I   2.872900  -5.874460  -9.481180 
Br   5.724400  -2.956270  -2.964290 
Br   5.711830  -2.944110  3.000800 
Br   5.809510  -8.778890  -3.070170 
Br   5.678940  3.020900  2.988570 
Pb   3.262000  -6.307120  -6.293040 
Pb   3.177440  0.005549  -6.251280 
Pb   3.198760  -6.239710  0.019659 
Pb   3.172320  0.018357  0.006839 
I   3.020760  -3.096580  -6.043470 
I   6.461860  -5.830570  -5.829320 
I   6.359390  0.048482  6.126750 
I   2.996690  -3.085460  0.012800 
I   6.405980  -6.077110  0.026086 
I   6.369470  0.035999  0.013540 
I   2.986120  0.010965  -3.096360 
I   3.017750  -6.032530  3.120500 
Br   5.752970  -3.049880  8.823900 
Pb   3.235390  -6.281370  6.332790 
Pb   3.151070  0.031077  6.264930 
I   2.995230  -3.071870  6.069110 
I   6.437190  -5.806690  5.880620 
I   3.065690  0.037180  9.469720 
Br   5.796450  -8.766240  3.130800 
133 
Atoms 
I   -2.860580  9.472510  -5.896780 
I   -2.832940  5.837410  -9.517090 
Br   -5.796520  8.767950  -3.130420 
Br   -5.809580  8.780600  3.070550 
Br   -5.711900  2.945810  -3.000420 
I   -6.437260  5.808390  -5.880240 
I   -2.885330  9.496460  5.846370 
I   -6.406050  6.078810  -0.025705 
I   -3.137870  9.446770  -0.025687 
I   -3.030890  6.046890  3.083120 
Br   -5.790150  3.087510  8.787060 
I   -6.461930  5.832280  5.829700 
Br   -0.042249  8.789820  -2.997250 
Br   -0.067240  8.837560  8.800940 
Br   -5.718850  -3.149300  -8.810800 
Br   -5.753040  3.051590  -8.823520 
I   -2.961100  -3.129580  -6.056010 
I   -6.359460  -0.046777  -6.126370 
I   -2.768190  -5.905580  -9.493000 
Br   -5.679010  -3.019200  -2.988190 
Br   -5.691580  -3.007030  2.976900 
Br   -5.699420  -8.842390  -3.094300 
Br   -5.724470  2.957980  2.964670 
I   -6.372690  -5.901390  -5.856220 
I   -2.986630  -3.104880  6.056580 
I   -6.385230  -0.021840  6.100040 
I   -6.338640  -6.147430  -0.000626 
I   -2.962540  -3.118350  0.000310 
I   -6.369540  -0.034293  -0.013160 
I   -2.973110  -0.021917  -3.108850 
I   -2.964110  -6.065540  3.107970 
Br   -5.755960  -3.113390  8.799770 
I   -6.397370  -5.877510  5.853720 
I   -3.105640  0.003127  9.456790 
Br   0.002071  2.962270  -8.801080 
Br   -0.030074  8.801590  -8.836740 
I   2.986560  3.106580  -6.056200 
I   -0.020706  6.056900  -6.080760 
I   3.105570  -0.001422  -9.456400 
I   -3.065760  -0.035474  -9.469340 
Cs   -0.010433  3.047070  -3.058550 
Cs   -0.023297  3.059520  3.046410 
Cs   0.023227  -3.057810  -3.046030 
Br   -0.054805  8.801980  2.961550 
Pb   -3.151140  -0.029371  -6.264550 
Pb   -3.235460  6.283080  -6.332410 
Pb   -3.172390  -0.016652  -0.006459 
Pb   -3.198830  6.241420  -0.019278 
I   -2.995300  3.073580  -6.068730 
I   0.012875  -0.011643  -6.126660 
I   2.961030  3.131290  6.056390 
I   -0.046281  6.081650  6.056240 
I   -2.996760  3.087170  -0.012419 
I   -0.000035  0.000853  0.000190 
I   2.962470  3.120050  0.000071 
I   -0.033815  6.127620  -0.012377 
I   -3.017820  6.034240  -3.120120 
I   2.964040  6.067240  -3.107580 
I   2.973040  0.023622  3.109230 
I   -2.986190  -0.009260  3.096740 
Br   -0.034995  2.998150  8.789240 
Br   -0.002141  -2.960570  8.801460 
Pb   -3.177510  -0.003843  6.251660 
Pb   -3.262070  6.308830  6.293420 
I   -3.020830  3.098280  6.043850 
I   -0.012945  0.013349  6.127040 
I   -2.872970  5.876160  9.481560 
I   2.768120  5.907290  9.493380 
I   2.808160  5.868540  -9.505260 
Br   5.712420  8.831450  -3.106300 
Br   5.699350  8.844100  3.094680 
Br   5.691510  3.008740  -2.976520 
Pb   3.192390  6.318550  -6.318940 
Pb   3.129750  6.276340  -0.006014 
I   2.780510  9.503640  -5.884960 
I   6.397300  5.879210  -5.853340 
I   3.033450  9.480820  -0.012753 
I   6.338570  6.149140  0.001007 
I   2.950970  6.079900  3.095660 
Br   5.718780  3.151010  8.811180 
Pb   3.165780  6.344300  6.306900 
I   2.755770  9.527590  5.858190 
I   6.372620  5.903100  5.856600 
Br   -5.712490  -8.829750  3.106680 
Br   0.067170  -8.835860  -8.800560 
Br   0.034925  -2.996440  -8.788860 
I   2.885260  -9.494760  -5.845990 
I   0.046211  -6.079950  -6.055860 
Br   0.054735  -8.800270  -2.961170 
Br   0.042179  -8.788120  2.997630 
Cs   0.010363  -3.045360  3.058930 
Pb   -3.165850  -6.342590  -6.306510 
Pb   -3.129820  -6.274630  0.006395 
I   -2.755840  -9.525880  -5.857810 
I   2.860510  -9.470810  5.897160 
I   0.020636  -6.055190  6.081140 
I   -3.033520  -9.479110  0.013133 
I   3.137800  -9.445060  0.026068 
I   0.033745  -6.125910  0.012758 
I   -2.951040  -6.078190  -3.095280 
I   3.030820  -6.045180  -3.082740 
Br   0.030004  -8.799880  8.837120 
Pb   -3.192460  -6.316840  6.319320 
I   -2.780580  -9.501930  5.885340 
I   -2.808230  -5.866830  9.505640 
I   2.832870  -5.835710  9.517470 
Br   5.790080  -3.085800  -8.786670 
Br   5.755890  3.115090  -8.799390 
I   6.385160  0.023546  -6.099660 
I   2.872900  -5.874460  -9.481180 
Br   5.724400  -2.956270  -2.964290 
Br   5.711830  -2.944110  3.000800 
Br   5.809510  -8.778890  -3.070170 
Br   5.678940  3.020900  2.988570 
Pb   3.262000  -6.307120  -6.293040 
Pb   3.177440  0.005549  -6.251280 
Pb   3.198760  -6.239710  0.019659 
Pb   3.172320  0.018357  0.006839 
I   3.020760  -3.096580  -6.043470 
I   6.461860  -5.830570  -5.829320 
I   6.359390  0.048482  6.126750 
I   2.996690  -3.085460  0.012800 
I   6.405980  -6.077110  0.026086 
I   6.369470  0.035999  0.013540 
I   2.986120  0.010965  -3.096360 
I   3.017750  -6.032530  3.120500 
Br   5.752970  -3.049880  8.823900 
Pb   3.235390  -6.281370  6.332790 
Pb   3.151070  0.031077  6.264930 
I   2.995230  -3.071870  6.069110 
I   6.437190  -5.806690  5.880620 
I   3.065690  0.037180  9.469720 
Br   5.796450  -8.766240  3.130800 
