518 
Atoms 
Br   -11.908500  11.789000  -9.339630 
Br   -11.997600  11.722600  3.059910 
Br   -11.928900  6.167990  -15.071000 
I   -9.131950  6.173220  -12.349300 
I   -12.563100  8.878230  -12.080000 
I   -9.250970  3.084300  -15.772600 
Br   -11.685400  6.094170  -9.162820 
Br   -11.736600  6.065830  -3.174630 
Br   -11.913600  -0.009644  -9.474350 
Br   -11.992800  11.715300  -3.106430 
I   -12.536400  3.011100  -12.457400 
I   -9.173350  6.179840  -0.014508 
I   -12.536800  9.107800  -0.020607 
I   -12.438700  3.451410  -6.206500 
I   -8.691360  6.150920  -6.244040 
I   -12.431500  9.006830  -6.212300 
I   -9.028300  9.145530  -9.362510 
I   -9.045210  3.056300  -3.127890 
Br   -11.741600  6.073270  3.141830 
Br   -11.699800  6.115720  9.130010 
Br   -11.911500  0.004912  2.884460 
Br   -11.923200  11.811000  9.293060 
I   -12.532500  3.069220  -0.013491 
I   -9.151390  6.202280  12.320300 
I   -12.582100  8.906640  12.039300 
I   -12.448500  3.466000  6.178740 
I   -8.701170  6.165600  6.215820 
I   -12.441300  9.021420  6.171460 
I   -9.073050  9.123820  3.091600 
I   -9.105410  3.035880  9.362900 
Br   -11.952600  6.203450  15.037700 
Br   -11.920000  0.019365  15.154900 
I   -12.556000  3.040410  12.430500 
I   -9.019530  8.983920  15.748300 
Br   -6.208460  11.910300  -15.138000 
I   -3.061520  12.523800  -12.451200 
I   -3.058290  9.278490  -15.789600 
I   -8.994680  8.946780  -15.783600 
Br   -5.933860  11.915900  -9.432440 
Br   -5.994190  11.941700  -2.961200 
Cs   -6.120040  6.078960  -9.512650 
Pb   -9.391070  9.382410  -12.577600 
Pb   -9.238520  9.309150  -6.248210 
I   -8.958330  12.565700  -12.155300 
I   -6.176210  9.125170  -12.422500 
I   -3.049220  12.543400  -0.017178 
I   -9.515990  12.547700  -6.170390 
I   -6.136870  9.690470  -6.201710 
I   -2.681930  12.386500  -6.253330 
I   -3.053530  9.050830  -3.132290 
I   -9.068150  9.116490  -3.127380 
Br   -5.998830  11.948600  2.923610 
Br   -5.948700  11.938100  9.394980 
Cs   -6.127050  6.111400  2.930550 
Pb   -9.333520  9.328190  -0.018343 
Pb   -9.248340  9.323830  6.211690 
I   -9.315360  12.519200  -0.022087 
I   -6.175190  9.183840  -0.015684 
I   -3.081120  12.553100  12.416800 
I   -9.525680  12.562200  6.125810 
I   -6.146610  9.705040  6.169180 
I   -2.691750  12.401200  6.219890 
I   -3.084580  9.045600  9.370840 
I   -9.043030  9.167540  9.326700 
Br   -6.232290  11.945900  15.100100 
Br   -6.129520  6.097740  15.139200 
Pb   -9.410860  9.411990  12.540600 
I   -8.977450  12.594300  12.111600 
I   -6.195770  9.154400  12.391200 
Br   0.008729  11.646400  -9.209900 
Br   -0.001006  11.726000  3.154340 
Br   -0.010380  11.968200  15.086800 
Br   -11.930400  -6.200440  -15.056500 
Br   -11.896100  -0.016359  -15.173700 
I   -9.133520  -6.199970  -12.334700 
I   -12.537100  -3.037240  -12.450300 
I   -8.996960  -8.981650  -15.762500 
Br   -11.686900  -6.112760  -9.148440 
Br   -11.738200  -6.070310  -3.160330 
Br   -11.911500  -11.807900  -9.311840 
Br   -11.906900  -0.001906  -2.903230 
I   -12.565400  -8.903460  -12.059100 
I   -9.174920  -6.177520  0.000047 
I   -12.533300  -3.066050  -0.006265 
I   -12.433800  -9.018280  -6.191070 
I   -8.692920  -6.163410  -6.229530 
I   -12.439600  -3.462860  -6.198360 
I   -9.091410  -3.033580  -9.377240 
I   -9.070470  -9.121530  -3.105900 
Br   -11.743100  -6.062870  3.156120 
Br   -11.701300  -6.091220  9.144380 
Br   -12.000600  -11.712300  3.087520 
Br   -11.928500  0.012653  9.455560 
I   -12.539100  -9.104630  0.000843 
I   -9.152960  -6.170910  12.334900 
I   -12.556800  -3.007930  12.437600 
I   -12.443600  -9.003690  6.192690 
I   -8.702740  -6.148730  6.230330 
I   -12.449400  -3.448270  6.186890 
I   -9.050910  -3.054020  3.113630 
I   -9.045360  -9.143250  9.348260 
Br   -11.954200  -6.164980  15.052200 
I   -12.584400  -8.875050  12.060200 
I   -9.276600  -3.081960  15.758000 
Br   -6.052380  -0.017095  -15.167900 
Br   -6.105640  6.062040  -15.163200 
I   -3.059100  -0.014240  -12.420900 
I   -6.178590  3.057120  -12.477000 
I   -3.069920  -3.065290  -15.831600 
I   -9.251760  -3.119090  -15.765300 
Cs   -6.080230  -0.010473  -9.548600 
Cs   -6.108970  -0.002697  -2.949710 
Cs   -6.121590  -6.099800  -9.498310 
Cs   -6.122410  6.104470  -2.954590 
Pb   -9.342090  -3.111830  -12.542700 
Pb   -9.341300  3.084650  -12.550000 
Pb   -9.212880  -3.066680  -6.245030 
Pb   -9.212100  3.054300  -6.252240 
I   -9.114910  -0.013494  -12.440800 
I   -6.179370  -3.084930  -12.469800 
I   -3.089820  0.000390  -0.002435 
I   -6.174820  3.113430  -0.008533 
I   -9.745560  -0.006062  -6.198950 
I   -6.097720  -2.324640  -6.267400 
I   -2.203320  -0.007143  -6.302220 
I   -6.097130  2.311430  -6.272860 
I   -9.090640  3.013800  -9.384360 
I   -3.061650  3.106180  -9.436260 
I   -3.044650  -3.042780  -3.131690 
I   -9.045990  -3.061360  -3.120690 
Cs   -6.113610  0.004240  2.940070 
Cs   -6.095270  0.012010  9.539000 
Cs   -6.128600  -6.102920  2.944940 
Cs   -6.135010  6.101340  9.488650 
Pb   -9.364680  -3.084050  -0.003747 
Pb   -9.363890  3.086410  -0.011014 
Pb   -9.222720  -3.051970  6.237710 
Pb   -9.221940  3.069000  6.230500 
I   -9.084780  0.001147  -0.007160 
I   -6.175620  -3.111870  -0.001201 
I   -3.078670  0.015015  12.416000 
I   -6.198240  3.086490  12.460000 
I   -9.755320  0.008523  6.183580 
I   -6.107590  -2.309880  6.263240 
I   -2.213250  0.007700  6.298740 
I   -6.107000  2.326180  6.257780 
I   -9.050130  3.063640  3.106430 
I   -3.048810  3.043550  3.126890 
I   -3.077310  -3.105410  9.431420 
I   -9.106180  -3.011500  9.370020 
Br   -6.076280  0.018626  15.158400 
Br   -6.131070  -6.060500  15.153500 
Pb   -9.361850  -3.082290  12.535200 
Pb   -9.361060  3.114190  12.527900 
I   -9.134500  0.015797  12.426400 
I   -6.199020  -3.055560  12.467300 
I   -9.275810  3.121430  15.750600 
I   -3.094090  3.066070  15.826800 
Br   0.012745  6.069830  -15.198900 
Br   0.013419  11.932700  -15.115000 
I   3.078680  6.170680  -12.526700 
I   0.010926  9.124320  -12.401700 
I   3.094870  3.027990  -15.833900 
I   -3.069140  3.028770  -15.838800 
Cs   0.008329  6.088300  -9.592280 
Cs   0.003066  6.115580  -2.910780 
Cs   0.007589  -0.011343  -9.630310 
Br   0.003987  11.718500  -3.181950 
Pb   -3.084710  3.076920  -12.640500 
Pb   -3.087500  9.328150  -12.567600 
Pb   -3.020730  3.037980  -6.286160 
Pb   -3.062020  9.173360  -6.261010 
I   -3.057370  6.171450  -12.531600 
I   0.010211  3.058660  -12.465200 
I   3.089960  6.180260  -0.004845 
I   0.001161  9.131760  -0.010755 
I   -3.850280  6.084160  -6.238780 
I   0.005429  3.945890  -6.256740 
I   3.861640  6.083190  -6.232700 
I   0.006018  8.528280  -6.269830 
I   -3.069790  9.023500  -9.396970 
I   3.086880  9.022720  -9.392120 
I   3.049590  3.035400  -3.134050 
I   -3.043880  3.036170  -3.138850 
Cs   -0.001510  6.122420  2.896360 
Cs   -0.006778  6.110880  9.577910 
Cs   -0.002294  0.003429  2.911030 
Br   -0.005765  11.668100  9.182440 
Pb   -3.091350  3.092200  -0.006078 
Pb   -3.083400  9.371380  -0.013468 
Pb   -3.030630  3.052770  6.274210 
Pb   -3.071860  9.188070  6.234550 
I   -3.088390  6.181040  -0.009714 
I   0.000391  3.078040  -0.003625 
I   3.058940  6.200170  12.517000 
I   -0.008602  9.153510  12.380100 
I   -3.860090  6.098840  6.218350 
I   -0.004424  3.960620  6.247430 
I   3.851820  6.097860  6.224430 
I   -0.003848  8.543030  6.249720 
I   -3.058440  9.058180  3.106150 
I   3.055830  9.057410  3.110970 
I   3.062440  3.127620  9.428920 
I   -3.076510  3.128400  9.424080 
Br   -0.011197  6.105620  15.184500 
Br   -0.011954  0.017869  15.170000 
Pb   -3.104630  3.106680  12.628300 
Pb   -3.107280  9.357720  12.540700 
I   -3.077100  6.200950  12.512200 
I   -0.009429  3.088020  12.458000 
I   -3.083150  9.315660  15.762900 
I   3.060650  9.314880  15.767700 
Br   6.235320  11.908700  -15.128200 
I   8.980650  12.563400  -12.141200 
I   9.021810  8.944510  -15.769400 
I   3.085510  9.277720  -15.784800 
Br   5.951730  11.914400  -9.423080 
Br   6.001870  11.940200  -2.951750 
Cs   6.136560  6.077410  -9.502990 
Pb   3.109660  9.327370  -12.562700 
Pb   3.074200  9.172580  -6.256170 
I   3.084300  12.523100  -12.446300 
I   6.198090  9.123610  -12.412800 
I   9.318540  12.516800  -0.007400 
I   2.694910  12.385800  -6.249090 
I   6.149080  9.688920  -6.192020 
I   9.528870  12.545300  -6.155380 
I   9.075370  9.114200  -3.113080 
I   3.060740  9.050060  -3.127470 
Br   5.997230  11.947100  2.933070 
Br   5.936890  11.936600  9.404350 
Cs   6.123970  6.109860  2.940210 
Pb   3.085780  9.370610  -0.008606 
Pb   3.064350  9.187300  6.239390 
I   3.052410  12.542600  -0.012369 
I   6.177520  9.182280  -0.005948 
I   8.961520  12.592000  12.125700 
I   2.685080  12.400500  6.224130 
I   6.139330  9.703490  6.178870 
I   9.519180  12.559800  6.140820 
I   9.030630  9.165260  9.340940 
I   3.072090  9.044830  9.375690 
Br   6.211490  11.944300  15.109900 
Br   6.107190  6.096190  15.148800 
Pb   3.089870  9.356940  12.545600 
I   3.064710  12.552300  12.421600 
I   6.178540  9.152840  12.401000 
Br   11.926200  11.786000  -9.320850 
Br   11.995700  11.719500  3.078830 
Br   -11.995700  -11.719500  -3.078830 
Br   -11.926200  -11.786000  9.320850 
Br   -6.211490  -11.944300  -15.109900 
Br   -6.107190  -6.096190  -15.148800 
I   -3.064710  -12.552300  -12.421600 
I   -6.178540  -9.152840  -12.401000 
Br   -5.936890  -11.936600  -9.404350 
Br   -5.997230  -11.947100  -2.933070 
Cs   -6.123970  -6.109860  -2.940210 
Pb   -9.393460  -9.409620  -12.555400 
Pb   -9.240890  -9.321490  -6.226260 
I   -8.961520  -12.592000  -12.125700 
I   -3.052410  -12.542600  0.012369 
I   -6.177520  -9.182280  0.005948 
I   -9.519180  -12.559800  -6.140820 
I   -2.685080  -12.400500  -6.224130 
I   -6.139330  -9.703490  -6.178870 
I   -9.030630  -9.165260  -9.340940 
I   -3.072090  -9.044830  -9.375690 
Br   -6.001870  -11.940200  2.951750 
Br   -5.951730  -11.914400  9.423080 
Cs   -6.136560  -6.077410  9.502990 
Pb   -9.335900  -9.325840  0.003628 
Pb   -9.250710  -9.306810  6.233630 
I   -9.318540  -12.516800  0.007400 
I   -3.084300  -12.523100  12.446300 
I   -6.198090  -9.123610  12.412800 
I   -9.528870  -12.545300  6.155380 
I   -2.694910  -12.385800  6.249090 
I   -6.149080  -9.688920  6.192020 
I   -9.075370  -9.114200  3.113080 
I   -3.060740  -9.050060  3.127470 
Br   -6.235320  -11.908700  15.128200 
Pb   -9.413250  -9.380030  12.562700 
I   -8.980650  -12.563400  12.141200 
I   -9.021810  -8.944510  15.769400 
I   -3.085510  -9.277720  15.784800 
Br   0.011197  -6.105620  -15.184500 
Br   0.011954  -0.017869  -15.170000 
I   3.077100  -6.200950  -12.512200 
I   0.009429  -3.088020  -12.458000 
I   3.083150  -9.315660  -15.762900 
I   -3.060650  -9.314880  -15.767700 
Cs   0.006778  -6.110880  -9.577910 
Cs   0.001510  -6.122420  -2.896360 
Br   0.005765  -11.668100  -9.182440 
Cs   0.002294  -0.003429  -2.911030 
Pb   -3.089870  -9.356940  -12.545600 
Pb   -3.085500  -3.105900  -12.633200 
Pb   -3.064350  -9.187300  -6.239390 
Pb   -3.021500  -3.052010  -6.278980 
I   -3.058940  -6.200170  -12.517000 
I   0.008602  -9.153510  -12.380100 
I   3.088390  -6.181040  0.009714 
I   -0.000391  -3.078040  0.003625 
I   -3.851820  -6.097860  -6.224430 
I   0.003848  -8.543030  -6.249720 
I   3.860090  -6.098840  -6.218350 
I   0.004424  -3.960620  -6.247430 
I   -3.062440  -3.127620  -9.428920 
I   3.076510  -3.128400  -9.424080 
I   3.058440  -9.058180  -3.106150 
I   -3.055830  -9.057410  -3.110970 
Cs   -0.003066  -6.115580  2.910780 
Cs   -0.008329  -6.088300  9.592280 
Br   -0.003987  -11.718500  3.181950 
Cs   -0.007589  0.011343  9.630310 
Pb   -3.085780  -9.370610  0.008606 
Pb   -3.092140  -3.091420  0.001205 
Pb   -3.074200  -9.172580  6.256170 
Pb   -3.031400  -3.037210  6.281390 
I   -3.089960  -6.180260  0.004845 
I   -0.001161  -9.131760  0.010755 
I   3.057370  -6.171450  12.531600 
I   -0.010211  -3.058660  12.465200 
I   -3.861640  -6.083190  6.232700 
I   -0.006018  -8.528280  6.269830 
I   3.850280  -6.084160  6.238780 
I   -0.005429  -3.945890  6.256740 
I   -3.049590  -3.035400  3.134050 
I   3.043880  -3.036170  3.138850 
I   3.069790  -9.023500  9.396970 
I   -3.086880  -9.022720  9.392120 
Br   -0.012745  -6.069830  15.198900 
Br   -0.013419  -11.932700  15.115000 
Pb   -3.109660  -9.327370  12.562700 
Pb   -3.105410  -3.076130  12.635600 
I   -3.078680  -6.170680  12.526700 
I   -0.010926  -9.124320  12.401700 
I   -3.094870  -3.027990  15.833900 
I   3.069140  -3.028770  15.838800 
Br   6.076280  -0.018626  -15.158400 
Br   6.131070  6.060500  -15.153500 
I   9.134500  -0.015797  -12.426400 
I   6.199020  3.055560  -12.467300 
I   9.275810  -3.121430  -15.750600 
I   3.094090  -3.066070  -15.826800 
Cs   6.095270  -0.012010  -9.539000 
Cs   6.113610  -0.004240  -2.940070 
Cs   6.135010  -6.101340  -9.488650 
Cs   6.128600  6.102920  -2.944940 
Pb   3.104630  -3.106680  -12.628300 
Pb   3.105410  3.076130  -12.635600 
Pb   3.030630  -3.052770  -6.274210 
Pb   3.031400  3.037210  -6.281390 
I   3.078670  -0.015015  -12.416000 
I   6.198240  -3.086490  -12.460000 
I   9.084780  -0.001147  0.007160 
I   6.175620  3.111870  0.001201 
I   2.213250  -0.007700  -6.298740 
I   6.107000  -2.326180  -6.257780 
I   9.755320  -0.008523  -6.183580 
I   6.107590  2.309880  -6.263240 
I   3.077310  3.105410  -9.431420 
I   9.106180  3.011500  -9.370020 
I   9.050130  -3.063640  -3.106430 
I   3.048810  -3.043550  -3.126890 
Cs   6.108970  0.002697  2.949710 
Cs   6.080230  0.010473  9.548600 
Cs   6.122410  -6.104470  2.954590 
Cs   6.121590  6.099800  9.498310 
Pb   3.091350  -3.092200  0.006078 
Pb   3.092140  3.091420  -0.001205 
Pb   3.020730  -3.037980  6.286160 
Pb   3.021500  3.052010  6.278980 
I   3.089820  -0.000390  0.002435 
I   6.174820  -3.113430  0.008533 
I   9.114910  0.013494  12.440800 
I   6.179370  3.084930  12.469800 
I   2.203320  0.007143  6.302220 
I   6.097130  -2.311430  6.272860 
I   9.745560  0.006062  6.198950 
I   6.097720  2.324640  6.267400 
I   3.044650  3.042780  3.131690 
I   9.045990  3.061360  3.120690 
I   9.090640  -3.013800  9.384360 
I   3.061650  -3.106180  9.436260 
Br   6.052380  0.017095  15.167900 
Br   6.105640  -6.062040  15.163200 
Pb   3.084710  -3.076920  12.640500 
Pb   3.085500  3.105900  12.633200 
I   3.059100  0.014240  12.420900 
I   6.178590  -3.057120  12.477000 
I   3.069920  3.065290  15.831600 
I   9.251760  3.119090  15.765300 
Br   11.954200  6.164980  -15.052200 
I   12.584400  8.875050  -12.060200 
I   9.276600  3.081960  -15.758000 
Br   11.701300  6.091220  -9.144380 
Br   11.743100  6.062870  -3.156120 
Br   11.928500  -0.012653  -9.455560 
Br   12.000600  11.712300  -3.087520 
Pb   9.361850  3.082290  -12.535200 
Pb   9.413250  9.380030  -12.562700 
Pb   9.222720  3.051970  -6.237710 
Pb   9.250710  9.306810  -6.233630 
I   9.152960  6.170910  -12.334900 
I   12.556800  3.007930  -12.437600 
I   12.539100  9.104630  -0.000843 
I   8.702740  6.148730  -6.230330 
I   12.449400  3.448270  -6.186890 
I   12.443600  9.003690  -6.192690 
I   9.045360  9.143250  -9.348260 
I   9.050910  3.054020  -3.113630 
Br   11.738200  6.070310  3.160330 
Br   11.686900  6.112760  9.148440 
Br   11.906900  0.001906  2.903230 
Br   11.911500  11.807900  9.311840 
Pb   9.364680  3.084050  0.003747 
Pb   9.335900  9.325840  -0.003628 
Pb   9.212880  3.066680  6.245030 
Pb   9.240890  9.321490  6.226260 
I   9.174920  6.177520  -0.000047 
I   12.533300  3.066050  0.006265 
I   12.565400  8.903460  12.059100 
I   8.692920  6.163410  6.229530 
I   12.439600  3.462860  6.198360 
I   12.433800  9.018280  6.191070 
I   9.070470  9.121530  3.105900 
I   9.091410  3.033580  9.377240 
Br   11.930400  6.200440  15.056500 
Br   11.896100  0.016359  15.173700 
Pb   9.342090  3.111830  12.542700 
Pb   9.393460  9.409620  12.555400 
I   9.133520  6.199970  12.334700 
I   12.537100  3.037240  12.450300 
I   8.996960  8.981650  15.762500 
Br   0.010380  -11.968200  -15.086800 
Br   0.001006  -11.726000  -3.154340 
Br   -0.008729  -11.646400  9.209900 
Br   6.232290  -11.945900  -15.100100 
Br   6.129520  -6.097740  -15.139200 
I   8.977450  -12.594300  -12.111600 
I   6.195770  -9.154400  -12.391200 
Br   5.948700  -11.938100  -9.394980 
Br   5.998830  -11.948600  -2.923610 
Cs   6.127050  -6.111400  -2.930550 
Pb   3.107280  -9.357720  -12.540700 
Pb   3.071860  -9.188070  -6.234550 
I   3.081120  -12.553100  -12.416800 
I   9.315360  -12.519200  0.022087 
I   6.175190  -9.183840  0.015684 
I   2.691750  -12.401200  -6.219890 
I   9.525680  -12.562200  -6.125810 
I   6.146610  -9.705040  -6.169180 
I   3.084580  -9.045600  -9.370840 
I   9.043030  -9.167540  -9.326700 
Br   5.994190  -11.941700  2.961200 
Br   5.933860  -11.915900  9.432440 
Cs   6.120040  -6.078960  9.512650 
Pb   3.083400  -9.371380  0.013468 
Pb   3.062020  -9.173360  6.261010 
I   3.049220  -12.543400  0.017178 
I   8.958330  -12.565700  12.155300 
I   6.176210  -9.125170  12.422500 
I   2.681930  -12.386500  6.253330 
I   9.515990  -12.547700  6.170390 
I   6.136870  -9.690470  6.201710 
I   3.053530  -9.050830  3.132290 
I   9.068150  -9.116490  3.127380 
Br   6.208460  -11.910300  15.138000 
Pb   3.087500  -9.328150  12.567600 
I   3.061520  -12.523800  12.451200 
I   3.058290  -9.278490  15.789600 
I   8.994680  -8.946780  15.783600 
Br   11.952600  -6.203450  -15.037700 
Br   11.920000  -0.019365  -15.154900 
I   12.556000  -3.040410  -12.430500 
I   9.019530  -8.983920  -15.748300 
Br   11.699800  -6.115720  -9.130010 
Br   11.741600  -6.073270  -3.141830 
Br   11.923200  -11.811000  -9.293060 
Br   11.911500  -0.004912  -2.884460 
Pb   9.410860  -9.411990  -12.540600 
Pb   9.361060  -3.114190  -12.527900 
Pb   9.248340  -9.323830  -6.211690 
Pb   9.221940  -3.069000  -6.230500 
I   9.151390  -6.202280  -12.320300 
I   12.582100  -8.906640  -12.039300 
I   12.532500  -3.069220  0.013491 
I   8.701170  -6.165600  -6.215820 
I   12.441300  -9.021420  -6.171460 
I   12.448500  -3.466000  -6.178740 
I   9.105410  -3.035880  -9.362900 
I   9.073050  -9.123820  -3.091600 
Br   11.736600  -6.065830  3.174630 
Br   11.685400  -6.094170  9.162820 
Br   11.992800  -11.715300  3.106430 
Br   11.913600  0.009644  9.474350 
Pb   9.333520  -9.328190  0.018343 
Pb   9.363890  -3.086410  0.011014 
Pb   9.238520  -9.309150  6.248210 
Pb   9.212100  -3.054300  6.252240 
I   9.173350  -6.179840  0.014508 
I   12.536800  -9.107800  0.020607 
I   12.536400  -3.011100  12.457400 
I   8.691360  -6.150920  6.244040 
I   12.431500  -9.006830  6.212300 
I   12.438700  -3.451410  6.206500 
I   9.045210  -3.056300  3.127890 
I   9.028300  -9.145530  9.362510 
Br   11.928900  -6.167990  15.071000 
Pb   9.391070  -9.382410  12.577600 
Pb   9.341300  -3.084650  12.550000 
I   9.131950  -6.173220  12.349300 
I   12.563100  -8.878230  12.080000 
I   9.250970  -3.084300  15.772600 
Br   11.997600  -11.722600  -3.059910 
Br   11.908500  -11.789000  9.339630 
518 
Atoms 
Br   -11.908500  11.789000  -9.339630 
Br   -11.997600  11.722600  3.059910 
Br   -11.928900  6.167990  -15.071000 
I   -9.131950  6.173220  -12.349300 
I   -12.563100  8.878230  -12.080000 
I   -9.250970  3.084300  -15.772600 
Br   -11.685400  6.094170  -9.162820 
Br   -11.736600  6.065830  -3.174630 
Br   -11.913600  -0.009644  -9.474350 
Br   -11.992800  11.715300  -3.106430 
I   -12.536400  3.011100  -12.457400 
I   -9.173350  6.179840  -0.014508 
I   -12.536800  9.107800  -0.020607 
I   -12.438700  3.451410  -6.206500 
I   -8.691360  6.150920  -6.244040 
I   -12.431500  9.006830  -6.212300 
I   -9.028300  9.145530  -9.362510 
I   -9.045210  3.056300  -3.127890 
Br   -11.741600  6.073270  3.141830 
Br   -11.699800  6.115720  9.130010 
Br   -11.911500  0.004912  2.884460 
Br   -11.923200  11.811000  9.293060 
I   -12.532500  3.069220  -0.013491 
I   -9.151390  6.202280  12.320300 
I   -12.582100  8.906640  12.039300 
I   -12.448500  3.466000  6.178740 
I   -8.701170  6.165600  6.215820 
I   -12.441300  9.021420  6.171460 
I   -9.073050  9.123820  3.091600 
I   -9.105410  3.035880  9.362900 
Br   -11.952600  6.203450  15.037700 
Br   -11.920000  0.019365  15.154900 
I   -12.556000  3.040410  12.430500 
I   -9.019530  8.983920  15.748300 
Br   -6.208460  11.910300  -15.138000 
I   -3.061520  12.523800  -12.451200 
I   -3.058290  9.278490  -15.789600 
I   -8.994680  8.946780  -15.783600 
Br   -5.933860  11.915900  -9.432440 
Br   -5.994190  11.941700  -2.961200 
Cs   -6.120040  6.078960  -9.512650 
Pb   -9.391070  9.382410  -12.577600 
Pb   -9.238520  9.309150  -6.248210 
I   -8.958330  12.565700  -12.155300 
I   -6.176210  9.125170  -12.422500 
I   -3.049220  12.543400  -0.017178 
I   -9.515990  12.547700  -6.170390 
I   -6.136870  9.690470  -6.201710 
I   -2.681930  12.386500  -6.253330 
I   -3.053530  9.050830  -3.132290 
I   -9.068150  9.116490  -3.127380 
Br   -5.998830  11.948600  2.923610 
Br   -5.948700  11.938100  9.394980 
Cs   -6.127050  6.111400  2.930550 
Pb   -9.333520  9.328190  -0.018343 
Pb   -9.248340  9.323830  6.211690 
I   -9.315360  12.519200  -0.022087 
I   -6.175190  9.183840  -0.015684 
I   -3.081120  12.553100  12.416800 
I   -9.525680  12.562200  6.125810 
I   -6.146610  9.705040  6.169180 
I   -2.691750  12.401200  6.219890 
I   -3.084580  9.045600  9.370840 
I   -9.043030  9.167540  9.326700 
Br   -6.232290  11.945900  15.100100 
Br   -6.129520  6.097740  15.139200 
Pb   -9.410860  9.411990  12.540600 
I   -8.977450  12.594300  12.111600 
I   -6.195770  9.154400  12.391200 
Br   0.008729  11.646400  -9.209900 
Br   -0.001006  11.726000  3.154340 
Br   -0.010380  11.968200  15.086800 
Br   -11.930400  -6.200440  -15.056500 
Br   -11.896100  -0.016359  -15.173700 
I   -9.133520  -6.199970  -12.334700 
I   -12.537100  -3.037240  -12.450300 
I   -8.996960  -8.981650  -15.762500 
Br   -11.686900  -6.112760  -9.148440 
Br   -11.738200  -6.070310  -3.160330 
Br   -11.911500  -11.807900  -9.311840 
Br   -11.906900  -0.001906  -2.903230 
I   -12.565400  -8.903460  -12.059100 
I   -9.174920  -6.177520  0.000047 
I   -12.533300  -3.066050  -0.006265 
I   -12.433800  -9.018280  -6.191070 
I   -8.692920  -6.163410  -6.229530 
I   -12.439600  -3.462860  -6.198360 
I   -9.091410  -3.033580  -9.377240 
I   -9.070470  -9.121530  -3.105900 
Br   -11.743100  -6.062870  3.156120 
Br   -11.701300  -6.091220  9.144380 
Br   -12.000600  -11.712300  3.087520 
Br   -11.928500  0.012653  9.455560 
I   -12.539100  -9.104630  0.000843 
I   -9.152960  -6.170910  12.334900 
I   -12.556800  -3.007930  12.437600 
I   -12.443600  -9.003690  6.192690 
I   -8.702740  -6.148730  6.230330 
I   -12.449400  -3.448270  6.186890 
I   -9.050910  -3.054020  3.113630 
I   -9.045360  -9.143250  9.348260 
Br   -11.954200  -6.164980  15.052200 
I   -12.584400  -8.875050  12.060200 
I   -9.276600  -3.081960  15.758000 
Br   -6.052380  -0.017095  -15.167900 
Br   -6.105640  6.062040  -15.163200 
I   -3.059100  -0.014240  -12.420900 
I   -6.178590  3.057120  -12.477000 
I   -3.069920  -3.065290  -15.831600 
I   -9.251760  -3.119090  -15.765300 
Cs   -6.080230  -0.010473  -9.548600 
Cs   -6.108970  -0.002697  -2.949710 
Cs   -6.121590  -6.099800  -9.498310 
Cs   -6.122410  6.104470  -2.954590 
Pb   -9.342090  -3.111830  -12.542700 
Pb   -9.341300  3.084650  -12.550000 
Pb   -9.212880  -3.066680  -6.245030 
Pb   -9.212100  3.054300  -6.252240 
I   -9.114910  -0.013494  -12.440800 
I   -6.179370  -3.084930  -12.469800 
I   -3.089820  0.000390  -0.002435 
I   -6.174820  3.113430  -0.008533 
I   -9.745560  -0.006062  -6.198950 
I   -6.097720  -2.324640  -6.267400 
I   -2.203320  -0.007143  -6.302220 
I   -6.097130  2.311430  -6.272860 
I   -9.090640  3.013800  -9.384360 
I   -3.061650  3.106180  -9.436260 
I   -3.044650  -3.042780  -3.131690 
I   -9.045990  -3.061360  -3.120690 
Cs   -6.113610  0.004240  2.940070 
Cs   -6.095270  0.012010  9.539000 
Cs   -6.128600  -6.102920  2.944940 
Cs   -6.135010  6.101340  9.488650 
Pb   -9.364680  -3.084050  -0.003747 
Pb   -9.363890  3.086410  -0.011014 
Pb   -9.222720  -3.051970  6.237710 
Pb   -9.221940  3.069000  6.230500 
I   -9.084780  0.001147  -0.007160 
I   -6.175620  -3.111870  -0.001201 
I   -3.078670  0.015015  12.416000 
I   -6.198240  3.086490  12.460000 
I   -9.755320  0.008523  6.183580 
I   -6.107590  -2.309880  6.263240 
I   -2.213250  0.007700  6.298740 
I   -6.107000  2.326180  6.257780 
I   -9.050130  3.063640  3.106430 
I   -3.048810  3.043550  3.126890 
I   -3.077310  -3.105410  9.431420 
I   -9.106180  -3.011500  9.370020 
Br   -6.076280  0.018626  15.158400 
Br   -6.131070  -6.060500  15.153500 
Pb   -9.361850  -3.082290  12.535200 
Pb   -9.361060  3.114190  12.527900 
I   -9.134500  0.015797  12.426400 
I   -6.199020  -3.055560  12.467300 
I   -9.275810  3.121430  15.750600 
I   -3.094090  3.066070  15.826800 
Br   0.012745  6.069830  -15.198900 
Br   0.013419  11.932700  -15.115000 
I   3.078680  6.170680  -12.526700 
I   0.010926  9.124320  -12.401700 
I   3.094870  3.027990  -15.833900 
I   -3.069140  3.028770  -15.838800 
Cs   0.008329  6.088300  -9.592280 
Cs   0.003066  6.115580  -2.910780 
Cs   0.007589  -0.011343  -9.630310 
Br   0.003987  11.718500  -3.181950 
Pb   -3.084710  3.076920  -12.640500 
Pb   -3.087500  9.328150  -12.567600 
Pb   -3.020730  3.037980  -6.286160 
Pb   -3.062020  9.173360  -6.261010 
I   -3.057370  6.171450  -12.531600 
I   0.010211  3.058660  -12.465200 
I   3.089960  6.180260  -0.004845 
I   0.001161  9.131760  -0.010755 
I   -3.850280  6.084160  -6.238780 
I   0.005429  3.945890  -6.256740 
I   3.861640  6.083190  -6.232700 
I   0.006018  8.528280  -6.269830 
I   -3.069790  9.023500  -9.396970 
I   3.086880  9.022720  -9.392120 
I   3.049590  3.035400  -3.134050 
I   -3.043880  3.036170  -3.138850 
Cs   -0.001510  6.122420  2.896360 
Cs   -0.006778  6.110880  9.577910 
Cs   -0.002294  0.003429  2.911030 
Br   -0.005765  11.668100  9.182440 
Pb   -3.091350  3.092200  -0.006078 
Pb   -3.083400  9.371380  -0.013468 
Pb   -3.030630  3.052770  6.274210 
Pb   -3.071860  9.188070  6.234550 
I   -3.088390  6.181040  -0.009714 
I   0.000391  3.078040  -0.003625 
I   3.058940  6.200170  12.517000 
I   -0.008602  9.153510  12.380100 
I   -3.860090  6.098840  6.218350 
I   -0.004424  3.960620  6.247430 
I   3.851820  6.097860  6.224430 
I   -0.003848  8.543030  6.249720 
I   -3.058440  9.058180  3.106150 
I   3.055830  9.057410  3.110970 
I   3.062440  3.127620  9.428920 
I   -3.076510  3.128400  9.424080 
Br   -0.011197  6.105620  15.184500 
Br   -0.011954  0.017869  15.170000 
Pb   -3.104630  3.106680  12.628300 
Pb   -3.107280  9.357720  12.540700 
I   -3.077100  6.200950  12.512200 
I   -0.009429  3.088020  12.458000 
I   -3.083150  9.315660  15.762900 
I   3.060650  9.314880  15.767700 
Br   6.235320  11.908700  -15.128200 
I   8.980650  12.563400  -12.141200 
I   9.021810  8.944510  -15.769400 
I   3.085510  9.277720  -15.784800 
Br   5.951730  11.914400  -9.423080 
Br   6.001870  11.940200  -2.951750 
Cs   6.136560  6.077410  -9.502990 
Pb   3.109660  9.327370  -12.562700 
Pb   3.074200  9.172580  -6.256170 
I   3.084300  12.523100  -12.446300 
I   6.198090  9.123610  -12.412800 
I   9.318540  12.516800  -0.007400 
I   2.694910  12.385800  -6.249090 
I   6.149080  9.688920  -6.192020 
I   9.528870  12.545300  -6.155380 
I   9.075370  9.114200  -3.113080 
I   3.060740  9.050060  -3.127470 
Br   5.997230  11.947100  2.933070 
Br   5.936890  11.936600  9.404350 
Cs   6.123970  6.109860  2.940210 
Pb   3.085780  9.370610  -0.008606 
Pb   3.064350  9.187300  6.239390 
I   3.052410  12.542600  -0.012369 
I   6.177520  9.182280  -0.005948 
I   8.961520  12.592000  12.125700 
I   2.685080  12.400500  6.224130 
I   6.139330  9.703490  6.178870 
I   9.519180  12.559800  6.140820 
I   9.030630  9.165260  9.340940 
I   3.072090  9.044830  9.375690 
Br   6.211490  11.944300  15.109900 
Br   6.107190  6.096190  15.148800 
Pb   3.089870  9.356940  12.545600 
I   3.064710  12.552300  12.421600 
I   6.178540  9.152840  12.401000 
Br   11.926200  11.786000  -9.320850 
Br   11.995700  11.719500  3.078830 
Br   -11.995700  -11.719500  -3.078830 
Br   -11.926200  -11.786000  9.320850 
Br   -6.211490  -11.944300  -15.109900 
Br   -6.107190  -6.096190  -15.148800 
I   -3.064710  -12.552300  -12.421600 
I   -6.178540  -9.152840  -12.401000 
Br   -5.936890  -11.936600  -9.404350 
Br   -5.997230  -11.947100  -2.933070 
Cs   -6.123970  -6.109860  -2.940210 
Pb   -9.393460  -9.409620  -12.555400 
Pb   -9.240890  -9.321490  -6.226260 
I   -8.961520  -12.592000  -12.125700 
I   -3.052410  -12.542600  0.012369 
I   -6.177520  -9.182280  0.005948 
I   -9.519180  -12.559800  -6.140820 
I   -2.685080  -12.400500  -6.224130 
I   -6.139330  -9.703490  -6.178870 
I   -9.030630  -9.165260  -9.340940 
I   -3.072090  -9.044830  -9.375690 
Br   -6.001870  -11.940200  2.951750 
Br   -5.951730  -11.914400  9.423080 
Cs   -6.136560  -6.077410  9.502990 
Pb   -9.335900  -9.325840  0.003628 
Pb   -9.250710  -9.306810  6.233630 
I   -9.318540  -12.516800  0.007400 
I   -3.084300  -12.523100  12.446300 
I   -6.198090  -9.123610  12.412800 
I   -9.528870  -12.545300  6.155380 
I   -2.694910  -12.385800  6.249090 
I   -6.149080  -9.688920  6.192020 
I   -9.075370  -9.114200  3.113080 
I   -3.060740  -9.050060  3.127470 
Br   -6.235320  -11.908700  15.128200 
Pb   -9.413250  -9.380030  12.562700 
I   -8.980650  -12.563400  12.141200 
I   -9.021810  -8.944510  15.769400 
I   -3.085510  -9.277720  15.784800 
Br   0.011197  -6.105620  -15.184500 
Br   0.011954  -0.017869  -15.170000 
I   3.077100  -6.200950  -12.512200 
I   0.009429  -3.088020  -12.458000 
I   3.083150  -9.315660  -15.762900 
I   -3.060650  -9.314880  -15.767700 
Cs   0.006778  -6.110880  -9.577910 
Cs   0.001510  -6.122420  -2.896360 
Br   0.005765  -11.668100  -9.182440 
Cs   0.002294  -0.003429  -2.911030 
Pb   -3.089870  -9.356940  -12.545600 
Pb   -3.085500  -3.105900  -12.633200 
Pb   -3.064350  -9.187300  -6.239390 
Pb   -3.021500  -3.052010  -6.278980 
I   -3.058940  -6.200170  -12.517000 
I   0.008602  -9.153510  -12.380100 
I   3.088390  -6.181040  0.009714 
I   -0.000391  -3.078040  0.003625 
I   -3.851820  -6.097860  -6.224430 
I   0.003848  -8.543030  -6.249720 
I   3.860090  -6.098840  -6.218350 
I   0.004424  -3.960620  -6.247430 
I   -3.062440  -3.127620  -9.428920 
I   3.076510  -3.128400  -9.424080 
I   3.058440  -9.058180  -3.106150 
I   -3.055830  -9.057410  -3.110970 
Cs   -0.003066  -6.115580  2.910780 
Cs   -0.008329  -6.088300  9.592280 
Br   -0.003987  -11.718500  3.181950 
Cs   -0.007589  0.011343  9.630310 
Pb   -3.085780  -9.370610  0.008606 
Pb   -3.092140  -3.091420  0.001205 
Pb   -3.074200  -9.172580  6.256170 
Pb   -3.031400  -3.037210  6.281390 
I   -3.089960  -6.180260  0.004845 
I   -0.001161  -9.131760  0.010755 
I   3.057370  -6.171450  12.531600 
I   -0.010211  -3.058660  12.465200 
I   -3.861640  -6.083190  6.232700 
I   -0.006018  -8.528280  6.269830 
I   3.850280  -6.084160  6.238780 
I   -0.005429  -3.945890  6.256740 
I   -3.049590  -3.035400  3.134050 
I   3.043880  -3.036170  3.138850 
I   3.069790  -9.023500  9.396970 
I   -3.086880  -9.022720  9.392120 
Br   -0.012745  -6.069830  15.198900 
Br   -0.013419  -11.932700  15.115000 
Pb   -3.109660  -9.327370  12.562700 
Pb   -3.105410  -3.076130  12.635600 
I   -3.078680  -6.170680  12.526700 
I   -0.010926  -9.124320  12.401700 
I   -3.094870  -3.027990  15.833900 
I   3.069140  -3.028770  15.838800 
Br   6.076280  -0.018626  -15.158400 
Br   6.131070  6.060500  -15.153500 
I   9.134500  -0.015797  -12.426400 
I   6.199020  3.055560  -12.467300 
I   9.275810  -3.121430  -15.750600 
I   3.094090  -3.066070  -15.826800 
Cs   6.095270  -0.012010  -9.539000 
Cs   6.113610  -0.004240  -2.940070 
Cs   6.135010  -6.101340  -9.488650 
Cs   6.128600  6.102920  -2.944940 
Pb   3.104630  -3.106680  -12.628300 
Pb   3.105410  3.076130  -12.635600 
Pb   3.030630  -3.052770  -6.274210 
Pb   3.031400  3.037210  -6.281390 
I   3.078670  -0.015015  -12.416000 
I   6.198240  -3.086490  -12.460000 
I   9.084780  -0.001147  0.007160 
I   6.175620  3.111870  0.001201 
I   2.213250  -0.007700  -6.298740 
I   6.107000  -2.326180  -6.257780 
I   9.755320  -0.008523  -6.183580 
I   6.107590  2.309880  -6.263240 
I   3.077310  3.105410  -9.431420 
I   9.106180  3.011500  -9.370020 
I   9.050130  -3.063640  -3.106430 
I   3.048810  -3.043550  -3.126890 
Cs   6.108970  0.002697  2.949710 
Cs   6.080230  0.010473  9.548600 
Cs   6.122410  -6.104470  2.954590 
Cs   6.121590  6.099800  9.498310 
Pb   3.091350  -3.092200  0.006078 
Pb   3.092140  3.091420  -0.001205 
Pb   3.020730  -3.037980  6.286160 
Pb   3.021500  3.052010  6.278980 
I   3.089820  -0.000390  0.002435 
I   6.174820  -3.113430  0.008533 
I   9.114910  0.013494  12.440800 
I   6.179370  3.084930  12.469800 
I   2.203320  0.007143  6.302220 
I   6.097130  -2.311430  6.272860 
I   9.745560  0.006062  6.198950 
I   6.097720  2.324640  6.267400 
I   3.044650  3.042780  3.131690 
I   9.045990  3.061360  3.120690 
I   9.090640  -3.013800  9.384360 
I   3.061650  -3.106180  9.436260 
Br   6.052380  0.017095  15.167900 
Br   6.105640  -6.062040  15.163200 
Pb   3.084710  -3.076920  12.640500 
Pb   3.085500  3.105900  12.633200 
I   3.059100  0.014240  12.420900 
I   6.178590  -3.057120  12.477000 
I   3.069920  3.065290  15.831600 
I   9.251760  3.119090  15.765300 
Br   11.954200  6.164980  -15.052200 
I   12.584400  8.875050  -12.060200 
I   9.276600  3.081960  -15.758000 
Br   11.701300  6.091220  -9.144380 
Br   11.743100  6.062870  -3.156120 
Br   11.928500  -0.012653  -9.455560 
Br   12.000600  11.712300  -3.087520 
Pb   9.361850  3.082290  -12.535200 
Pb   9.413250  9.380030  -12.562700 
Pb   9.222720  3.051970  -6.237710 
Pb   9.250710  9.306810  -6.233630 
I   9.152960  6.170910  -12.334900 
I   12.556800  3.007930  -12.437600 
I   12.539100  9.104630  -0.000843 
I   8.702740  6.148730  -6.230330 
I   12.449400  3.448270  -6.186890 
I   12.443600  9.003690  -6.192690 
I   9.045360  9.143250  -9.348260 
I   9.050910  3.054020  -3.113630 
Br   11.738200  6.070310  3.160330 
Br   11.686900  6.112760  9.148440 
Br   11.906900  0.001906  2.903230 
Br   11.911500  11.807900  9.311840 
Pb   9.364680  3.084050  0.003747 
Pb   9.335900  9.325840  -0.003628 
Pb   9.212880  3.066680  6.245030 
Pb   9.240890  9.321490  6.226260 
I   9.174920  6.177520  -0.000047 
I   12.533300  3.066050  0.006265 
I   12.565400  8.903460  12.059100 
I   8.692920  6.163410  6.229530 
I   12.439600  3.462860  6.198360 
I   12.433800  9.018280  6.191070 
I   9.070470  9.121530  3.105900 
I   9.091410  3.033580  9.377240 
Br   11.930400  6.200440  15.056500 
Br   11.896100  0.016359  15.173700 
Pb   9.342090  3.111830  12.542700 
Pb   9.393460  9.409620  12.555400 
I   9.133520  6.199970  12.334700 
I   12.537100  3.037240  12.450300 
I   8.996960  8.981650  15.762500 
Br   0.010380  -11.968200  -15.086800 
Br   0.001006  -11.726000  -3.154340 
Br   -0.008729  -11.646400  9.209900 
Br   6.232290  -11.945900  -15.100100 
Br   6.129520  -6.097740  -15.139200 
I   8.977450  -12.594300  -12.111600 
I   6.195770  -9.154400  -12.391200 
Br   5.948700  -11.938100  -9.394980 
Br   5.998830  -11.948600  -2.923610 
Cs   6.127050  -6.111400  -2.930550 
Pb   3.107280  -9.357720  -12.540700 
Pb   3.071860  -9.188070  -6.234550 
I   3.081120  -12.553100  -12.416800 
I   9.315360  -12.519200  0.022087 
I   6.175190  -9.183840  0.015684 
I   2.691750  -12.401200  -6.219890 
I   9.525680  -12.562200  -6.125810 
I   6.146610  -9.705040  -6.169180 
I   3.084580  -9.045600  -9.370840 
I   9.043030  -9.167540  -9.326700 
Br   5.994190  -11.941700  2.961200 
Br   5.933860  -11.915900  9.432440 
Cs   6.120040  -6.078960  9.512650 
Pb   3.083400  -9.371380  0.013468 
Pb   3.062020  -9.173360  6.261010 
I   3.049220  -12.543400  0.017178 
I   8.958330  -12.565700  12.155300 
I   6.176210  -9.125170  12.422500 
I   2.681930  -12.386500  6.253330 
I   9.515990  -12.547700  6.170390 
I   6.136870  -9.690470  6.201710 
I   3.053530  -9.050830  3.132290 
I   9.068150  -9.116490  3.127380 
Br   6.208460  -11.910300  15.138000 
Pb   3.087500  -9.328150  12.567600 
I   3.061520  -12.523800  12.451200 
I   3.058290  -9.278490  15.789600 
I   8.994680  -8.946780  15.783600 
Br   11.952600  -6.203450  -15.037700 
Br   11.920000  -0.019365  -15.154900 
I   12.556000  -3.040410  -12.430500 
I   9.019530  -8.983920  -15.748300 
Br   11.699800  -6.115720  -9.130010 
Br   11.741600  -6.073270  -3.141830 
Br   11.923200  -11.811000  -9.293060 
Br   11.911500  -0.004912  -2.884460 
Pb   9.410860  -9.411990  -12.540600 
Pb   9.361060  -3.114190  -12.527900 
Pb   9.248340  -9.323830  -6.211690 
Pb   9.221940  -3.069000  -6.230500 
I   9.151390  -6.202280  -12.320300 
I   12.582100  -8.906640  -12.039300 
I   12.532500  -3.069220  0.013491 
I   8.701170  -6.165600  -6.215820 
I   12.441300  -9.021420  -6.171460 
I   12.448500  -3.466000  -6.178740 
I   9.105410  -3.035880  -9.362900 
I   9.073050  -9.123820  -3.091600 
Br   11.736600  -6.065830  3.174630 
Br   11.685400  -6.094170  9.162820 
Br   11.992800  -11.715300  3.106430 
Br   11.913600  0.009644  9.474350 
Pb   9.333520  -9.328190  0.018343 
Pb   9.363890  -3.086410  0.011014 
Pb   9.238520  -9.309150  6.248210 
Pb   9.212100  -3.054300  6.252240 
I   9.173350  -6.179840  0.014508 
I   12.536800  -9.107800  0.020607 
I   12.536400  -3.011100  12.457400 
I   8.691360  -6.150920  6.244040 
I   12.431500  -9.006830  6.212300 
I   12.438700  -3.451410  6.206500 
I   9.045210  -3.056300  3.127890 
I   9.028300  -9.145530  9.362510 
Br   11.928900  -6.167990  15.071000 
Pb   9.391070  -9.382410  12.577600 
Pb   9.341300  -3.084650  12.550000 
I   9.131950  -6.173220  12.349300 
I   12.563100  -8.878230  12.080000 
I   9.250970  -3.084300  15.772600 
Br   11.997600  -11.722600  -3.059910 
Br   11.908500  -11.789000  9.339630 
